21

C -1.307284 -0.691979 0.653508
C -2.383003 -0.071126 -0.276980
C 0.109429 -0.225142 0.295680
C -3.820849 -0.518778 0.053194
C 0.627524 0.979293 0.828810
C 0.902627 -0.959428 -0.617928
C 1.913821 1.427682 0.471876
C 2.188737 -0.510112 -0.974571
C 2.695905 0.682730 -0.428775
H -1.357892 -1.787749 0.605680
H -1.523620 -0.436399 1.699284
H -2.315790 1.024000 -0.224317
H -2.146864 -0.326298 -1.319072
H -4.100203 -0.235922 1.073821
H -4.536800 -0.050045 -0.630356
H -3.930450 -1.604383 -0.042125
H 0.033125 1.573105 1.521936
H 0.523662 -1.881607 -1.056484
H 2.302323 2.353233 0.892640
H 2.790152 -1.086202 -1.675241
H 3.689582 1.030053 -0.705236
