21

C -1.249147415577 -1.052967923926 0.416361002289
C -2.353573795505 -0.499991664757 -0.528057355735
C 0.095134881157 -0.392612093216 0.206665006880
C -3.531700375057 0.118952915869 0.229640433793
C 0.420079627374 0.792187125592 0.876342119613
C 1.024958320337 -0.925300669539 -0.692004708229
C 1.637276900563 1.431138667468 0.650304679961
C 2.243958808134 -0.290113773765 -0.920820712551
C 2.553380206150 0.892003723835 -0.251043331052
H -1.145300455686 -2.131940382705 0.279780319772
H -1.560274957459 -0.906042615524 1.454665131586
H -1.915984175780 0.251487484625 -1.189506912705
H -2.720611322995 -1.300351236397 -1.176123374899
H -3.196670809107 0.954589523070 0.849139292184
H -4.292445751738 0.495462836210 -0.456935915161
H -4.004257495167 -0.615860461210 0.885626133306
H -0.285177309861 1.213185271516 1.582584478707
H 0.791942093833 -1.845469993799 -1.213717069952
H 1.871552389429 2.345618758329 1.178969073226
H 2.951302610167 -0.718740762566 -1.618395898571
H 3.499817409287 1.385335001322 -0.425906034389
