21

C -1.494715810466 0.234996190096 0.444602041414
C -2.218199431273 -0.977290815396 -0.166344827109
C -0.003825607099 0.260600005881 0.178591856708
C -3.720963648104 -0.969385402087 0.124010775473
C 0.913055841895 0.324279925594 1.231879161799
C 0.490242885546 0.275434846854 -1.131317832094
C 2.284802533202 0.374126987018 0.988506945337
C 1.859225954046 0.326049511293 -1.379735604835
C 2.762764850515 0.372865632182 -0.319269711382
H -1.669722732874 0.246926164627 1.524115141997
H -1.948580748744 1.150873743409 0.049190821375
H -2.056477614615 -0.993989945022 -1.247659523853
H -1.766504285317 -1.892949017583 0.226071276618
H -4.193909300893 -0.074675551296 -0.288195320722
H -4.213105693745 -1.840261629998 -0.312629029796
H -3.911412863559 -0.981184771116 1.199815926937
H 0.549313064213 0.328607599416 2.251954554785
H -0.200939060513 0.252535834001 -1.964527703517
H 2.977224200669 0.417246639747 1.818700078755
H 2.220373740654 0.334537218646 -2.399582649831
H 3.826371975287 0.412865065213 -0.511036397044
