21

C -1.132370 -1.508622 0.366661
C -2.522741 -0.940601 -0.079282
C 0.062771 -0.554072 0.215909
C -2.539288 0.508347 -0.618341
C 0.400630 0.348643 1.252608
C 0.835360 -0.545967 -0.969940
C 1.486530 1.233533 1.108287
C 1.921118 0.339273 -1.113302
C 2.248112 1.228788 -0.074120
H -0.925781 -2.433968 -0.187941
H -1.195845 -1.838045 1.412602
H -2.944972 -1.611825 -0.839582
H -3.218434 -1.017572 0.767373
H -1.906357 0.611608 -1.506001
H -3.555175 0.802138 -0.903014
H -2.190578 1.220611 0.136733
H -0.180431 0.368333 2.173613
H 0.594400 -1.225271 -1.786598
H 1.736576 1.922804 1.912702
H 2.507847 0.335842 -2.030085
H 3.087728 1.912389 -0.185032
