21

C -1.548819 0.414150 0.250616
C -2.207465 -0.970274 0.011497
C -0.026476 0.380033 0.053909
C -3.737648 -0.968103 0.203324
C 0.839100 0.168977 1.153838
C 0.542375 0.610706 -1.221613
C 2.236609 0.166661 0.978839
C 1.940112 0.608396 -1.395870
C 2.787888 0.384209 -0.296446
H -1.782331 0.768574 1.263326
H -1.989128 1.158816 -0.425628
H -1.962828 -1.315112 -1.002361
H -1.751697 -1.706282 0.687549
H -4.223253 -0.274295 -0.491199
H -4.151566 -1.965725 0.021758
H -4.009011 -0.675275 1.223298
H 0.430362 0.003646 2.149647
H -0.098297 0.790938 -2.083722
H 2.891129 -0.002795 1.831922
H 2.365356 0.781509 -2.382762
H 3.867820 0.381726 -0.431637
