21

C -1.540371 0.364384 0.277437
C -2.198723 -1.019644 0.038938
C -0.018769 0.325288 0.079170
C -3.728257 -1.018299 0.230752
C 0.848112 0.110445 1.177276
C 0.547914 0.552026 -1.197910
C 2.245042 0.097333 0.997836
C 1.944852 0.539387 -1.376634
C 2.794161 0.309463 -0.279445
H -1.772534 0.718764 1.290463
H -1.980289 1.109216 -0.398942
H -1.954034 -1.364336 -0.974843
H -1.742417 -1.755287 0.715126
H -4.213605 -0.325090 -0.464476
H -4.142378 -2.016387 0.052377
H -3.998586 -0.722308 1.249880
H 0.440880 -0.051215 2.174369
H -0.094516 0.736318 -2.057905
H 2.901222 -0.076870 1.848688
H 2.368370 0.708090 -2.365052
H 3.873434 0.298318 -0.418007
