21

C -1.288949 -0.875807 0.507867
C -2.381200 -0.291880 -0.433220
C 0.108942 -0.307157 0.227550
C -3.784694 -0.233808 0.202843
C 0.535663 0.897857 0.835765
C 0.978311 -0.951203 -0.684626
C 1.811296 1.428228 0.561769
C 2.254229 -0.420755 -0.957456
C 2.672843 0.767198 -0.331827
H -1.282669 -1.971607 0.442654
H -1.542754 -0.659132 1.554139
H -2.092873 0.725793 -0.730825
H -2.400271 -0.866400 -1.368677
H -3.789197 0.394993 1.099705
H -4.512568 0.182538 -0.501582
H -4.129388 -1.233901 0.486784
H -0.120963 1.427132 1.524821
H 0.667815 -1.867741 -1.184386
H 2.131212 2.351312 1.041782
H 2.917720 -0.930622 -1.653650
H 3.659724 1.175443 -0.541145
