21

C -1.342756 -0.319962 1.145399
C -2.507043 0.261751 0.294746
C 0.032422 -0.083540 0.506809
C -3.076069 -0.726513 -0.743768
C 0.745905 1.115360 0.746212
C 0.594482 -1.044439 -0.367041
C 1.996675 1.339778 0.138874
C 1.845966 -0.820156 -0.972525
C 2.548418 0.371489 -0.718918
H -1.500140 -1.386928 1.350295
H -1.351677 0.156269 2.135378
H -3.317069 0.558041 0.975562
H -2.190538 1.195453 -0.189141
H -3.473087 -1.626284 -0.261534
H -3.892389 -0.264384 -1.309107
H -2.307177 -1.031149 -1.461845
H 0.331989 1.878711 1.403597
H 0.061612 -1.970055 -0.580046
H 2.536938 2.264580 0.333013
H 2.269705 -1.569822 -1.638356
H 3.515566 0.544744 -1.186938
