21

C -1.384745099406 -0.303364931708 0.670919554607
C -2.361305857317 -0.461816357089 -0.502436281874
C 0.062499502132 -0.026220151196 0.303498422750
C -3.791183881782 -0.733949816524 -0.027909806723
C 0.840120293417 0.791277495146 1.131900883228
C 0.647467908791 -0.518836968189 -0.867883842848
C 2.165859449660 1.082061706755 0.821824541441
C 1.973827903285 -0.229402997642 -1.183371911045
C 2.739793413789 0.569705072769 -0.339195141018
H -1.429046786383 -1.214474572904 1.280403639830
H -1.740561032607 0.504815195475 1.316812390337
H -2.332753116846 0.440732012156 -1.119479633846
H -2.043960528021 -1.288067338768 -1.143285167658
H -4.161526742220 0.086515923246 0.591215464596
H -4.473253430784 -0.850102040423 -0.871970875915
H -3.836002620296 -1.648294081962 0.568376289185
H 0.399183970321 1.203861513778 2.031077170258
H 0.072883239776 -1.137577396822 -1.542546210378
H 2.746454825120 1.713789176441 1.480739127776
H 2.405781095914 -0.625310875557 -2.092789198967
H 3.767937436011 0.796464021727 -0.586025541923
