21

C -1.332903505539 -0.490373933632 0.715602443602
C -2.353707536653 -0.231824939999 -0.406102564861
C 0.086111997990 -0.124136818943 0.335700329334
C -3.780410613948 -0.608470691062 0.000156906509
C 0.770972755688 0.893996639159 1.005136953164
C 0.727183159082 -0.764169550207 -0.731716535968
C 2.062214940479 1.259446580708 0.627281747809
C 2.017008519362 -0.403806361020 -1.112135709480
C 2.689659314043 0.611218549699 -0.433395889812
H -1.376815108015 -1.549802977875 0.992659619978
H -1.628244047830 0.073037020177 1.605225273259
H -2.311022682417 0.824850862656 -0.685661771832
H -2.065622283673 -0.796970058361 -1.296945647337
H -4.106460342887 -0.028547281814 0.866864148215
H -4.485163952834 -0.420945877469 -0.811890743946
H -3.845416356423 -1.666934776649 0.263821248362
H 0.288332228225 1.405129900290 1.828980383335
H 0.216496151474 -1.557805614234 -1.263103529964
H 2.574962265242 2.049731592422 1.159316521922
H 2.496600108892 -0.913701447789 -1.937113193467
H 3.691367464064 0.892624059912 -0.728435307412
