21

C -1.181011 -1.386505 0.400774
C -2.439111 -0.872641 -0.355165
C 0.070432 -0.517614 0.196183
C -2.904710 0.545599 0.038348
C 0.327339 0.597070 1.030705
C 0.977998 -0.801846 -0.852102
C 1.466806 1.399469 0.828060
C 2.116697 0.001847 -1.054972
C 2.362548 1.102024 -0.214402
H -0.966092 -2.417146 0.088083
H -1.402876 -1.460657 1.473807
H -2.239012 -0.905960 -1.434838
H -3.259471 -1.585287 -0.194761
H -2.129030 1.292783 -0.158405
H -3.794392 0.832817 -0.531993
H -3.160296 0.594874 1.102167
H -0.356549 0.845278 1.841029
H 0.802424 -1.647177 -1.515971
H 1.654194 2.251468 1.478933
H 2.807114 -0.228608 -1.864257
H 3.243013 1.722312 -0.370898
