21

C -1.427483079750 -0.117077564010 0.617296940347
C -2.330644655623 -0.677241910173 -0.485058582730
C 0.040069077315 0.069508342958 0.268874216479
C -3.783277567547 -0.817849295573 -0.023435553628
C 0.890174794931 0.652729017999 1.217097813126
C 0.577976407444 -0.267359752866 -0.976046777434
C 2.235318364995 0.873119416186 0.941902837778
C 1.926945108712 -0.048282818374 -1.256314466399
C 2.761081689056 0.520701611993 -0.300029060028
H -1.498076043934 -0.774773725333 1.491181390285
H -1.830310873595 0.849387395862 0.939430733677
H -2.288108731671 -0.022487315463 -1.360392240668
H -1.957019955167 -1.654838904342 -0.803548810637
H -4.195789222280 0.150196756761 0.270272743170
H -4.412635363699 -1.222964053360 -0.817569850766
H -3.856925999725 -1.486777576522 0.837118046033
H 0.488599641393 0.934193390329 2.183193963408
H -0.048671721004 -0.706787175543 -1.738468469163
H 2.871451367723 1.322719134528 1.692583445337
H 2.322307436759 -0.320532386265 -2.225746488321
H 3.806195184406 0.691239107286 -0.519103412820
