21

C -1.118450500971 -1.507089895035 0.368611485032
C -2.502767925676 -0.930006966688 -0.079113675609
C 0.054639542912 -0.565147222329 0.217723905294
C -2.489022259858 0.507524078311 -0.610054671697
C 0.389597454905 0.330257621501 1.239244764334
C 0.820128109198 -0.551360813282 -0.952866116889
C 1.448350845278 1.223229539787 1.091982136751
C 1.881099683976 0.338855497396 -1.105566559970
C 2.197732221522 1.231087493134 -0.083158141468
H -0.909380454823 -2.414956017824 -0.201676176868
H -1.182334689434 -1.816369327641 1.414370118481
H -2.922304002411 -1.581024144885 -0.850113283836
H -3.194327974598 -0.982130465577 0.765625626699
H -1.851780256437 0.602862552429 -1.490734802595
H -3.499391616388 0.813754315826 -0.888814974251
H -2.116354463116 1.209281966857 0.137562561843
H -0.188637239203 0.326922657647 2.155463309139
H 0.579492662206 -1.243744373182 -1.750614842517
H 1.689927648718 1.908831085099 1.893339412926
H 2.461151236728 0.333603793018 -2.018896822165
H 3.021731380566 1.921982703989 -0.199060074555
