21

C -1.305436 -0.804004 0.468411
C -2.422090 0.089490 -0.144364
C 0.121555 -0.293377 0.193784
C -3.848347 -0.427284 0.133268
C 0.512706 1.014204 0.573392
C 1.058832 -1.104465 -0.491723
C 1.807615 1.489906 0.289463
C 2.353374 -0.627456 -0.775921
C 2.728907 0.669725 -0.384963
H -1.414470 -1.829420 0.091561
H -1.445556 -0.876029 1.555238
H -2.326741 1.113331 0.239144
H -2.260526 0.167648 -1.228113
H -4.050527 -0.475093 1.208670
H -4.594829 0.234554 -0.318479
H -3.994922 -1.429140 -0.284278
H -0.183540 1.667874 1.096370
H 0.787341 -2.109980 -0.809914
H 2.095779 2.494773 0.592755
H 3.064209 -1.263186 -1.300637
H 3.728896 1.038409 -0.605378
