21

C -1.522934708072 0.346102623600 0.271487997599
C -2.175215482724 -1.027552502251 0.033906631290
C -0.023208269328 0.318299779148 0.078894240139
C -3.692871414696 -1.002966560158 0.229528882326
C 0.835809038072 0.112661296827 1.163135490485
C 0.539176655201 0.549141044894 -1.180864427155
C 2.217972768596 0.095490447220 0.987719433612
C 1.920356280688 0.533632574334 -1.361607327564
C 2.764639493010 0.302608678899 -0.277129625512
H -1.758014981105 0.682540974057 1.285683944006
H -1.968455245570 1.075707167994 -0.411647049184
H -1.934764718642 -1.363857633823 -0.979220668204
H -1.722997559859 -1.755533126563 0.714266194546
H -4.165157947451 -0.303744285248 -0.464808528414
H -4.130014549263 -1.988913554308 0.061800437297
H -3.950884170882 -0.689713646469 1.244084520296
H 0.417329950978 -0.038170062293 2.150903715053
H -0.111538332860 0.741094521135 -2.025540067649
H 2.866356986683 -0.070864308985 1.837711216298
H 2.336583362997 0.710216824084 -2.344532364407
H 3.837339213254 0.293417317571 -0.414674672104
