21

C -1.287270915430 -0.233916876599 1.377385924671
C -2.578596603068 0.059942972335 0.564058252368
C -0.002904507503 -0.079384273735 0.596061428036
C -2.495582831887 -0.254448974066 -0.932154987384
C 0.627908881212 1.166087930838 0.501224650476
C 0.569434701128 -1.165359110950 -0.074143413749
C 1.788782158228 1.326870241850 -0.251917241696
C 1.731100549824 -1.010849442530 -0.827236857501
C 2.344069712904 0.237271577281 -0.920322039397
H -1.335746515521 -1.262720664027 1.747174513641
H -1.266414802840 0.408588606797 2.260283375294
H -3.409255089072 -0.486285126354 1.017999902632
H -2.818913401996 1.122926032422 0.669724146497
H -2.279843458301 -1.310613676486 -1.111906856351
H -3.443165255840 -0.020761796082 -1.421309266764
H -1.710529035302 0.327874657811 -1.415106238597
H 0.200955321812 2.015820349760 1.020364149117
H 0.099053533434 -2.138527124342 -0.004180103730
H 2.260655898997 2.298545146734 -0.313630103812
H 2.158143084584 -1.863606460328 -1.338105532494
H 3.246700900367 0.358497344454 -1.503706047837
