21

C -1.283257 -0.873195 0.522017
C -2.373213 -0.290719 -0.423818
C 0.111718 -0.298944 0.240365
C -3.780405 -0.232962 0.203635
C 0.534418 0.907583 0.848226
C 0.983678 -0.941861 -0.669880
C 1.804351 1.447196 0.566173
C 2.253292 -0.401556 -0.951992
C 2.665101 0.792257 -0.332894
H -1.272995 -1.969089 0.457777
H -1.539229 -0.654357 1.567378
H -2.084186 0.726852 -0.721046
H -2.387022 -0.865908 -1.359062
H -3.790250 0.396432 1.100007
H -4.503650 0.185235 -0.504753
H -4.127706 -1.233246 0.483235
H -0.121909 1.431859 1.541550
H 0.678383 -1.863240 -1.163961
H 2.119843 2.373135 1.043368
H 2.916318 -0.907655 -1.651213
H 3.646144 1.209741 -0.551140
