21

C -1.464349694769 0.060610553571 0.535767942245
C -2.288937974144 -0.859853208591 -0.373002888095
C 0.018644212354 0.163415669792 0.224282977200
C -3.766419503449 -0.890552017442 0.027262070070
C 0.913174513673 0.491238015187 1.250066532165
C 0.532058678732 -0.004923488042 -1.065641737991
C 2.274509030483 0.640070958860 1.001373216670
C 1.895101656017 0.141032168055 -1.319079844291
C 2.772027785658 0.464765055890 -0.287990888034
H -1.581270036552 -0.274029836017 1.571178046518
H -1.900251440862 1.066248862496 0.495565902136
H -2.216822620746 -0.522277466705 -1.409926476032
H -1.867838845416 -1.868827130502 -0.342313572194
H -4.207623024326 0.106893242563 -0.036308550086
H -4.339369114513 -1.552591954606 -0.624277063069
H -3.887531408669 -1.244149608422 1.053865010832
H 0.535991230408 0.626080374075 2.256484101391
H -0.127133299089 -0.256658322810 -1.884082647561
H 2.945490116744 0.889815020332 1.812392704874
H 2.269911904269 0.001664516299 -2.324294285871
H 3.829274048780 0.577362818643 -0.485380446693
