21

C -1.219881197691 -1.234785754823 0.381136926916
C -2.362583792206 -0.703791234998 -0.516595653142
C 0.071836303808 -0.468602821662 0.201612822431
C -3.189453144741 0.400706477852 0.146666494816
C 0.331467666330 0.692458281556 0.938388110495
C 1.022070657219 -0.886253404666 -0.736467234849
C 1.501394098658 1.422106457382 0.736460601644
C 2.193717902123 -0.160804865407 -0.940931464448
C 2.435923187440 0.998409915683 -0.206287040059
H -1.036589113191 -2.286619627669 0.146226883644
H -1.535411655477 -1.199531864731 1.427784541881
H -1.941003311982 -0.345586817280 -1.459364261319
H -3.028733905754 -1.534660341210 -0.768768828956
H -2.567297797793 1.263430566900 0.396463828331
H -3.985959356001 0.747416688666 -0.514290921032
H -3.649643839704 0.037735384358 1.068647845422
H -0.384755996573 1.020149692453 1.681645574363
H 0.841554775000 -1.787783051148 -1.309348265114
H 1.684371313169 2.316841514694 1.316558855620
H 2.916993750223 -0.501080665786 -1.670139137327
H 3.345667090833 1.561910297151 -0.362847727258
