21

C -1.332208324269 -0.311013960904 1.136458988337
C -2.485225097900 0.276539165319 0.289096690827
C 0.026283963499 -0.090561008847 0.508947743976
C -3.042771363313 -0.717832920325 -0.732528984833
C 0.735450051022 1.091644603154 0.748804812402
C 0.585659148906 -1.036916266026 -0.356395849889
C 1.965642469521 1.325038304944 0.138713699871
C 1.815505262046 -0.807064727842 -0.970647266629
C 2.508999709783 0.376252220426 -0.725836414196
H -1.505151581026 -1.379411803581 1.292678962460
H -1.338819622899 0.153921407041 2.126109558023
H -3.295750988282 0.584031543066 0.957009344231
H -2.136270122252 1.181443332607 -0.215092822960
H -3.436884295304 -1.604779018139 -0.230884935662
H -3.849449960509 -0.273665892411 -1.318355102978
H -2.265617998862 -1.042949787075 -1.428690913766
H 0.320089169872 1.832515015888 1.421329521720
H 0.055573726181 -1.962597493767 -0.543642043944
H 2.500116668400 2.244112616568 0.339505080802
H 2.231988967905 -1.551335598643 -1.636337088642
H 3.464571608206 0.555574877147 -1.199579277077
