21

C -1.231504 -1.242875 0.389922
C -2.386041 -0.710551 -0.505643
C 0.078312 -0.466650 0.195365
C -3.224048 0.407125 0.147942
C 0.336702 0.707296 0.942561
C 1.035986 -0.888286 -0.757907
C 1.528058 1.433390 0.751188
C 2.226379 -0.160596 -0.950214
C 2.473950 0.999556 -0.194767
H -1.051089 -2.299081 0.147901
H -1.525514 -1.248377 1.447587
H -1.988378 -0.381827 -1.475087
H -3.051705 -1.551168 -0.745621
H -2.603848 1.277133 0.388002
H -4.019289 0.740152 -0.527323
H -3.694758 0.060455 1.074100
H -0.386081 1.060735 1.676535
H 0.859679 -1.781534 -1.355561
H 1.716865 2.331935 1.335807
H 2.955627 -0.496038 -1.685322
H 3.394380 1.560869 -0.342912
