21

C -1.311972 -0.799054 0.475391
C -2.429613 0.088129 -0.143780
C 0.113985 -0.282281 0.208335
C -3.853696 -0.437401 0.126505
C 0.498004 1.027662 0.587428
C 1.057661 -1.090894 -0.471662
C 1.792446 1.507962 0.308526
C 2.351796 -0.609461 -0.750129
C 2.720511 0.689711 -0.358987
H -1.413906 -1.826012 0.100757
H -1.458324 -0.868866 1.561534
H -2.341982 1.112571 0.240202
H -2.262795 0.166821 -1.226493
H -4.061279 -0.485917 1.200704
H -4.603016 0.217596 -0.330637
H -3.989599 -1.440734 -0.291104
H -0.203436 1.679426 1.105765
H 0.790996 -2.097715 -0.790134
H 2.075274 2.514937 0.610049
H 3.067670 -1.243177 -1.270456
H 3.720614 1.061397 -0.573940
