21

C -1.301770456968 -0.780833229554 0.462775893783
C -2.402501428141 0.100228088634 -0.152283868783
C 0.103683475274 -0.279184467852 0.202519020307
C -3.807461900828 -0.437276068830 0.130083845299
C 0.486732061903 1.013882643269 0.578611268039
C 1.037372153197 -1.077179067726 -0.465104388992
C 1.767168443934 1.488768068543 0.307754227455
C 2.320224145763 -0.605938324985 -0.739788276451
C 2.689632600649 0.679789649168 -0.353712240904
H -1.399956545721 -1.798093388227 0.073509349790
H -1.471563901182 -0.848459322058 1.543668444370
H -2.318088103054 1.118274098316 0.237186081215
H -2.237940640299 0.169317013850 -1.231449471584
H -3.999377319312 -0.483992400607 1.204807593061
H -4.571960648175 0.198574794066 -0.319915539868
H -3.929395219440 -1.445052395811 -0.274003399068
H -0.217509182511 1.651654083561 1.097825092756
H 0.756351063928 -2.076562587021 -0.773519827031
H 2.044412552051 2.489500016789 0.611450960030
H 3.027323910730 -1.241105105880 -1.256574113097
H 3.683964252095 1.048385151563 -0.565966360994
