21

C -1.376025127254 -0.705885903605 -0.321236368535
C -2.337226844524 0.019793870745 0.636207655643
C 0.056989369105 -0.228561607439 -0.217927899730
C -3.778316145727 -0.480710258991 0.513055505103
C 0.394760423658 1.088169292526 -0.552758817989
C 1.082433847724 -1.099417408962 0.161072869960
C 1.713420097150 1.528996420552 -0.482247325550
C 2.404415907624 -0.662695371010 0.234349012245
C 2.723839000853 0.654480855917 -0.084931985876
H -1.731267408708 -0.568445285158 -1.348537432061
H -1.416824824805 -1.780382475893 -0.121365713805
H -1.981944503819 -0.114233512480 1.662031209505
H -2.304403215533 1.094947647994 0.437831901272
H -3.843106595836 -1.546583731645 0.744404967281
H -4.441801981415 0.050865889111 1.197550540816
H -4.156870921449 -0.336280651344 -0.501807483355
H -0.380312096949 1.772429249585 -0.875545468235
H 0.842530182896 -2.126707979690 0.406082010521
H 1.953484635277 2.551253378600 -0.742929841765
H 3.182520192499 -1.351343653269 0.535774191478
H 3.748900708749 0.995079806512 -0.031141040677
