21

C -1.337043898475 -0.798684960818 0.070692359577
C -2.449888861195 0.233688291116 0.272284340533
C 0.083837801252 -0.265102432724 -0.007259855462
C -3.834449499957 -0.416187578117 0.331962077813
C 0.389827254060 1.098109890655 0.019441205454
C 1.138311063001 -1.173577645964 -0.164472391743
C 1.709316436413 1.538094252912 -0.088675455913
C 2.454856369998 -0.739342110901 -0.273617429562
C 2.746496438103 0.623209872004 -0.234836155364
H -1.545510405306 -1.359052686292 -0.847587363585
H -1.390029550037 -1.530790215554 0.884257151500
H -2.268041316644 0.792610342528 1.195012484281
H -2.428806140555 0.959530089261 -0.545821371775
H -3.898530059054 -1.125126703115 1.160698042350
H -4.616548804166 0.332248474002 0.470219297615
H -4.050365837363 -0.960604528174 -0.590223381930
H -0.396937642437 1.830081431902 0.130498968784
H 0.920185083789 -2.234274572588 -0.198704714017
H 1.923056106856 2.598180456878 -0.060792555713
H 3.251638382430 -1.461608586924 -0.391188492863
H 3.768704815453 0.965652032275 -0.319531929964
