21

C -1.298221793351 -0.677212232509 0.639227054620
C -2.359206893722 -0.060074976149 -0.289304475998
C 0.102723264152 -0.225064905412 0.294926538173
C -3.779648449767 -0.514419577296 0.054177508933
C 0.620183925275 0.961068268780 0.825666084260
C 0.888744086238 -0.950115184676 -0.606258847953
C 1.889088477987 1.410978426091 0.467952746740
C 2.158296425875 -0.504022129786 -0.967669707652
C 2.662339401079 0.679272764535 -0.431519343206
H -1.360754950727 -1.767964462693 0.578361427601
H -1.530162633063 -0.408096244166 1.674411750725
H -2.291141246046 1.030386672888 -0.230319473231
H -2.121468897160 -0.326811259253 -1.323521925342
H -4.045470342459 -0.227953841936 1.074614544639
H -4.512338826573 -0.068551875693 -0.620884758688
H -3.871303872378 -1.600643677995 -0.021151995228
H 0.024896420979 1.532524598231 1.527692174928
H 0.503221060860 -1.871971922563 -1.024770129235
H 2.274092365511 2.328861977903 0.892020509599
H 2.752890799911 -1.079554245843 -1.664661596433
H 3.648350047621 1.026067638878 -0.709354044726
