21

C -1.259887 -1.061752 0.430517
C -2.373016 -0.506526 -0.510828
C 0.099990 -0.387250 0.207134
C -3.569205 0.122392 0.231093
C 0.428656 0.811062 0.884542
C 1.032995 -0.926877 -0.710120
C 1.666504 1.444892 0.662476
C 2.269946 -0.291351 -0.933082
C 2.588078 0.893782 -0.245896
H -1.161582 -2.145575 0.284699
H -1.551203 -0.956491 1.483775
H -1.942990 0.228049 -1.205150
H -2.727930 -1.320013 -1.157803
H -3.248566 0.966638 0.850889
H -4.314284 0.493752 -0.480545
H -4.062695 -0.609585 0.879409
H -0.275883 1.254793 1.586748
H 0.800846 -1.840322 -1.255912
H 1.910213 2.363173 1.193570
H 2.980437 -0.717003 -1.639415
H 3.543837 1.384781 -0.418534
