21

C -1.325734 -0.520842 0.808929
C -2.421435 0.111502 -0.096071
C 0.095482 -0.156007 0.358744
C -3.717874 -0.718628 -0.181762
C 0.705706 1.038653 0.809342
C 0.800506 -0.975771 -0.555101
C 1.996548 1.394466 0.372731
C 2.092336 -0.620187 -0.989475
C 2.691467 0.564439 -0.525035
H -1.421342 -1.614777 0.802722
H -1.486492 -0.230603 1.855318
H -2.634135 1.131663 0.249886
H -2.020426 0.233502 -1.111881
H -4.173120 -0.841911 0.806893
H -4.451165 -0.223628 -0.827270
H -3.526559 -1.713474 -0.598061
H 0.179291 1.696601 1.499588
H 0.348575 -1.892273 -0.931971
H 2.456764 2.314078 0.729294
H 2.627527 -1.261923 -1.686981
H 3.688875 0.839987 -0.862284
