14

C -0.437568473138 -0.574869709743 0.243880799048
C 0.437678502075 0.574511994890 -0.244679205663
C -1.919242870275 -0.352883508646 -0.038584538039
C 1.919144323073 0.353215831012 0.039327122976
H -0.283736855076 -0.710065698261 1.321551206799
H -0.106485150772 -1.505675816440 -0.232850116858
H 0.105973116515 1.505488589706 0.231343592889
H 0.284682738545 0.709131888898 -1.322559839433
H -2.099258621176 -0.246681238619 -1.112496343316
H -2.276791544886 0.558004108310 0.450723719566
H -2.526276896487 -1.187816620551 0.322251744820
H 2.278264863372 -0.555565086291 -0.452725264816
H 2.097645958953 0.243375633095 1.113155282177
H 2.525845679969 1.190106584152 -0.317729322657
