14

C -0.523066 -0.752340 -0.361440
C 0.646393 0.200144 -0.715844
C -1.601656 -0.185181 0.567821
C 1.483907 0.712551 0.461025
H -0.104987 -1.677831 0.097999
H -1.009590 -1.081333 -1.308957
H 0.239633 1.075156 -1.273708
H 1.323287 -0.322932 -1.430551
H -2.083860 0.713870 0.121954
H -1.182050 0.098492 1.558833
H -2.400511 -0.939353 0.748008
H 1.953233 -0.130108 1.017016
H 0.868919 1.303587 1.175932
H 2.303465 1.374165 0.100630
