14

C -0.790741 -0.152717 0.654059
C 0.536824 0.659454 0.594462
C -1.165861 -1.032388 -0.544125
C 1.410575 0.544053 -0.659921
H -1.629291 0.558943 0.836672
H -0.765197 -0.798677 1.562327
H 1.158992 0.379625 1.476295
H 0.295143 1.736711 0.749251
H -0.392926 -1.810772 -0.732978
H -1.283558 -0.426137 -1.470216
H -2.131461 -1.555579 -0.361344
H 0.860659 0.876880 -1.568733
H 1.749859 -0.503614 -0.821931
H 2.319715 1.179721 -0.566163
