14

C -0.714669 -0.083357 0.790603
C 0.565577 0.750099 0.510094
C -1.371015 -0.807821 -0.390124
C 1.487282 0.287884 -0.624225
H -1.469115 0.567096 1.290936
H -0.452538 -0.858825 1.547623
H 1.154727 0.839094 1.452201
H 0.244283 1.790282 0.269488
H -0.677032 -1.540375 -0.860075
H -1.691461 -0.084138 -1.172921
H -2.274368 -1.366856 -0.057201
H 0.959376 0.276877 -1.604173
H 1.875274 -0.737137 -0.429267
H 2.363558 0.967452 -0.722350
