14

C -0.636450708126 -0.195277886272 0.728885200664
C 0.510357497249 0.759137106231 0.371110006363
C -1.446673254222 -0.692876003458 -0.467548886602
C 1.564706746474 0.165065265854 -0.562122609522
H -1.308338498155 0.307709822311 1.435146205939
H -0.223001869257 -1.060455990487 1.265147447921
H 0.995162057585 1.092728053776 1.296808102043
H 0.088735600868 1.660761836624 -0.094035370443
H -0.824270865363 -1.240289628517 -1.182026377349
H -1.901907611664 0.146111592969 -1.007013983961
H -2.252741090189 -1.360590475092 -0.147533966092
H 1.133884707926 -0.144666960643 -1.519192906916
H 2.030397432833 -0.719749108047 -0.112235901952
H 2.358045824314 0.889217753463 -0.772395627170
