14

C -0.460528 -0.713679 -0.082024
C 0.531462 0.396408 -0.537178
C -1.865787 -0.228981 0.290482
C 1.796327 0.539759 0.316040
H -0.036325 -1.271882 0.783775
H -0.552003 -1.467777 -0.897885
H 0.011864 1.381337 -0.570132
H 0.836921 0.193170 -1.589816
H -2.359364 0.275109 -0.570767
H -1.830756 0.491919 1.138191
H -2.510281 -1.082878 0.598376
H 2.387857 -0.403385 0.320787
H 1.543461 0.793553 1.370184
H 2.450968 1.348663 -0.079489
