14

C -0.439987423122 -0.726868640924 -0.088852647260
C 0.513769100557 0.396795584368 -0.555338582923
C -1.832830659289 -0.221466472468 0.285748041532
C 1.764200331677 0.528495480463 0.313467204630
H -0.003885391195 -1.238157591031 0.779069660681
H -0.533196594172 -1.492071861037 -0.868212873555
H -0.022167228569 1.354736582052 -0.551560423955
H 0.815416714216 0.229539832350 -1.595849547409
H -2.315566089398 0.268255730639 -0.567472711465
H -1.776118877441 0.512699773565 1.097745491986
H -2.483019709711 -1.038261264190 0.616607909345
H 2.345034552809 -0.400730662347 0.309300690568
H 1.495305228550 0.743814362637 1.354088475522
H 2.416861155091 1.334556635726 -0.038195335185
