14

C -0.569822495604 -0.294505310595 0.667096342635
C 0.465376576133 0.761719738938 0.244262871810
C -1.599875284039 -0.599150375161 -0.420251079881
C 1.697608554496 0.161971019160 -0.432526349760
H -1.104859396675 0.056233413378 1.558271007285
H -0.053853451733 -1.216109738756 0.964946576363
H 0.797003031596 1.320873205311 1.127916795568
H -0.008610282916 1.495481864829 -0.419985124439
H -1.121764294467 -0.979867404948 -1.330306585887
H -2.157490059157 0.304402693701 -0.689830150134
H -2.321111590132 -1.353162274696 -0.088130010199
H 1.427848576594 -0.389717338458 -1.340604948901
H 2.209098211288 -0.534436081397 0.240832084880
H 2.413665617399 0.938679200214 -0.720632920074
