14

C -0.462343 -0.573453 0.240527
C 0.462396 0.573226 -0.240969
C -1.953899 -0.360810 -0.039317
C 1.953968 0.360504 0.038718
H -0.322293 -0.718017 1.336658
H -0.141445 -1.526165 -0.240482
H 0.141693 1.525864 0.240330
H 0.322106 0.718049 -1.337030
H -2.148104 -0.255147 -1.130497
H -2.331047 0.556602 0.466167
H -2.553761 -1.222192 0.331502
H 2.330350 -0.560399 -0.461106
H 2.148221 0.261490 1.130442
H 2.554170 1.220392 -0.335013
