14

C -0.451876 -0.661338 0.056145
C 0.493364 0.475933 -0.418035
C -1.941083 -0.301470 0.100530
C 1.910781 0.436713 0.163624
H -0.155259 -0.974860 1.083541
H -0.300421 -1.558112 -0.587698
H 0.047123 1.458332 -0.139463
H 0.543072 0.472903 -1.531244
H -2.311527 -0.005023 -0.906550
H -2.134070 0.541303 0.802006
H -2.547544 -1.170891 0.440556
H 2.427143 -0.512606 -0.103593
H 1.896356 0.522128 1.273632
H 2.523816 1.277265 -0.232841
