17

N 3.089524 1.840277 -1.330666
C 1.742693 1.577109 -1.057075
C 1.280244 0.255528 -1.209553
C 1.094813 2.370314 -0.090397
C 0.060902 -0.165043 -0.639577
C -0.126559 1.968515 0.489001
C -0.662469 0.704020 0.193825
H 1.847935 -0.455611 -1.795413
H 1.516401 3.322488 0.204421
H -0.314390 -1.182121 -0.840763
H -0.651042 2.645331 1.183613
H -1.616799 0.382775 0.643361
H 3.572600 2.549291 -0.765918
H 3.706107 1.046739 -1.544367
O 3.146215 0.178821 1.812959
H 2.556396 -0.239867 2.439564
H 4.007309 0.265342 2.220795
