17

  N      2.89199     1.25976     1.17436
  C      1.77538     1.14307     0.17008
  C      1.43728    -0.09240    -0.35675
  C      0.85701     2.13558    -0.02140
  C      0.05261    -0.49156    -0.40759
  C     -0.61623     1.74210     0.19479
  C     -0.97082     0.43313    -0.14956
  H      2.13848    -0.95782    -0.15169
  H      0.96581     3.07783     0.72188
  H     -0.19669    -1.49491    -0.74388
  H     -1.40135     2.46453     0.41386
  H     -2.01723     0.15103    -0.25643
  H      3.20249     2.23654     1.11040
  H      3.64078     0.65957     0.81715
  O      4.41603     1.45986    -1.14173
  H      3.45563     1.37284    -1.08940
  H      4.61871     1.96475    -0.37028
