15

O -1.675122091719 -0.904316934605 -0.309613056772
C -0.016005348082 0.823646577490 0.097544345021
C 0.980044458590 -0.339773768553 0.073249987120
C -1.477307511432 0.402516086944 0.278712281726
C 2.421499548715 0.144665142110 -0.105864043897
H 0.244441360172 1.525623111605 0.895389854672
H 0.089406953598 1.372169140477 -0.844575211090
H 0.704502161379 -1.021933220905 -0.729174713322
H 0.898445269448 -0.913158947791 1.001863733092
H -1.710861057963 0.350645811038 1.349653009379
H -2.143173663789 1.142585338756 -0.177883335287
H 2.534985249424 0.694279166771 -1.043843800541
H 3.118440591421 -0.695291908578 -0.124897277435
H 2.721082297616 0.810233274137 0.707935490164
H -2.592847325812 -1.189569561019 -0.212377067173
