15

O -2.276395 0.134251 -0.712215
C 0.047211 0.355496 -0.111457
C 1.237827 -0.432490 0.493968
C -1.350018 -0.133110 0.344038
C 2.618163 0.075226 0.029193
H 0.132636 1.425218 0.119640
H 0.097201 0.274830 -1.205760
H 1.144447 -1.495240 0.234183
H 1.190246 -0.381438 1.589689
H -1.325598 -1.209171 0.557865
H -1.642908 0.365103 1.276542
H 2.720424 0.003515 -1.059133
H 3.421964 -0.516174 0.480295
H 2.771991 1.120987 0.316173
H -3.159660 -0.166834 -0.427312
