15

O -1.744360274394 0.278817247133 0.773760037529
C 0.042024611340 -0.174590250266 -0.810021569593
C 0.959761594993 0.021140091448 0.400595615150
C -1.429407818228 -0.412083467556 -0.457730481866
C 2.414111288598 0.257101674696 -0.016316812916
H 0.124880668561 0.718546022478 -1.438568363067
H 0.393616608567 -1.014142429712 -1.417225345094
H 0.902294491819 -0.856719609718 1.051656276654
H 0.591209252277 0.859541463331 0.989135839341
H -2.073628232130 -0.069723311679 -1.274617435977
H -1.600871735452 -1.486889575185 -0.317750834428
H 2.805704203943 -0.588320092459 -0.588118909038
H 3.055055426248 0.396715715194 0.856173448875
H 2.501095860122 1.149688197458 -0.641207859769
H -2.667885401303 0.138717984924 1.019754508505
