15

O -2.242894 0.454375 -0.474428
C 0.039008 -0.286946 -0.580131
C 1.327103 -0.742000 0.158173
C -1.141693 0.067598 0.350111
C 2.287425 0.410187 0.517181
H 0.247490 0.560297 -1.246227
H -0.300793 -1.102167 -1.233517
H 1.871632 -1.441904 -0.490063
H 1.072271 -1.317711 1.057356
H -1.405069 -0.794555 0.976020
H -0.856446 0.882183 1.027741
H 2.621892 0.943219 -0.379469
H 3.176498 0.027328 1.029566
H 1.805431 1.134027 1.183155
H -2.992013 0.685781 0.106151
