15

O -2.303376971554 0.330671367785 -0.583463872177
C 0.068560594083 0.211885135192 -0.230628241579
C 1.232174774258 -0.409861922378 0.545821613605
C -1.283872461177 -0.312370464773 0.217322195769
C 2.592010645140 0.126301477865 0.091939627021
H 0.073554435211 1.298050244309 -0.108465359712
H 0.183502739063 0.012149914915 -1.299387565433
H 1.210953560075 -1.498126294912 0.425635249791
H 1.102738469441 -0.213906399491 1.615762952183
H -1.334629304474 -1.398755340332 0.083610274848
H -1.426821999597 -0.092698568154 1.282415508946
H 2.758181773394 -0.084494945482 -0.966761366830
H 3.407777893822 -0.327221285370 0.657716743207
H 2.647845342008 1.208542933206 0.228454640643
H -3.130249296460 0.421232411196 -0.094267042501
