15

O -1.962509180091 -0.730661515773 1.251968146459
C -0.182482277348 0.241070502612 -0.135854951055
C 1.293546073185 0.174341466859 -0.536878421448
C -0.561160805551 -0.810280983599 0.897784734705
C 1.671968515587 1.235273861401 -1.572638374596
H -0.422804084343 1.229204283499 0.267170826063
H -0.808265735872 0.105047615556 -1.025930542012
H 1.519988890743 -0.821887748728 -0.934727389564
H 1.917464586366 0.296886267688 0.355406862083
H -0.305626119968 -1.812498154702 0.532383111925
H -0.009886025996 -0.643586661877 1.823677890306
H 1.083903200731 1.116421839111 -2.486335649642
H 2.727300935322 1.170040667948 -1.841582474312
H 1.484600275308 2.240905965513 -1.187094680483
H -2.495674454772 -1.290962132355 0.672876723972
