15

O -2.209247 0.649322 0.003286
C 0.056921 -0.021995 -0.504175
C 1.190507 -0.323644 0.510929
C -1.355319 -0.495920 -0.063465
C 2.581269 0.160341 0.051500
H 0.024032 1.056612 -0.707482
H 0.289233 -0.497322 -1.466381
H 1.234182 -1.404314 0.700535
H 0.950936 0.146168 1.474195
H -1.743832 -1.229975 -0.780577
H -1.314039 -1.008724 0.905371
H 2.875101 -0.315256 -0.890421
H 3.343163 -0.081284 0.800282
H 2.592529 1.245345 -0.098071
H -3.095365 0.354209 0.285447
