15

O -2.306216441724 0.391629222040 -0.532791060178
C 0.068882655735 0.215947805718 -0.227011708510
C 1.231908544794 -0.425033307922 0.534505876268
C -1.287058534368 -0.265828767526 0.256675888305
C 2.595467431319 0.068488491694 0.044759343480
H 0.109951305916 1.303788421522 -0.125695246724
H 0.151089102263 -0.006731680978 -1.293964447870
H 1.180038133559 -1.514162325109 0.430095071545
H 1.129962701329 -0.211343540040 1.603759649235
H -1.348705179919 -1.355267836063 0.144807097924
H -1.421951099356 -0.023951084452 1.316831813043
H 2.734075678848 -0.161216039188 -1.014029704664
H 3.410854059661 -0.398187421992 0.600317619216
H 2.681933128722 1.150627787819 0.164443509897
H -3.093217883860 -0.159754121682 -0.621202640630
