15

O -1.700269 -0.991108 -0.520413
C 0.055465 0.561662 0.050867
C 1.145686 -0.525887 0.260920
C -1.388765 0.099344 0.351520
C 2.576620 -0.037838 -0.042054
H 0.272004 1.429999 0.687262
H 0.087519 0.923047 -0.985630
H 0.924097 -1.392899 -0.375740
H 1.103272 -0.892327 1.295081
H -1.478489 -0.198421 1.403817
H -2.085175 0.933665 0.200061
H 2.668174 0.295948 -1.081253
H 3.301936 -0.843071 0.115256
H 2.856725 0.795970 0.610422
H -2.613727 -1.279175 -0.334693
