15

O -2.301551 0.392534 -0.587181
C 0.064882 0.039364 -0.369578
C 1.259457 -0.536598 0.441271
C -1.319658 -0.181492 0.278699
C 2.580720 0.236296 0.249350
H 0.189414 1.123477 -0.493722
H 0.061417 -0.384034 -1.382430
H 1.403345 -1.594438 0.185651
H 1.016611 -0.520601 1.512134
H -1.502210 -1.254248 0.420172
H -1.352977 0.284466 1.271737
H 2.891200 0.231273 -0.801129
H 3.384957 -0.217573 0.838200
H 2.481031 1.279134 0.569308
H -3.179459 0.262322 -0.181940
