15

O -2.407027188924 0.357384724260 -0.316332649155
C 0.059606115756 0.212038599702 -0.235508463072
C 1.269077160697 -0.427437612204 0.451456577663
C -1.271436437040 -0.248710326640 0.344741381194
C 2.599765559435 0.046557863537 -0.137547418951
H 0.118081774757 1.301789467422 -0.157535270093
H 0.084823351160 -0.034988418946 -1.304982485038
H 1.197879357114 -1.516371160673 0.367791961000
H 1.239302298827 -0.196140917311 1.520855814206
H -1.341885382574 -1.339737800469 0.272017468730
H -1.350571788929 0.027484702760 1.395372422649
H 2.665393513563 -0.198494066426 -1.200130449114
H 3.445764161134 -0.421380806768 0.368076001864
H 2.705175863647 1.129069452867 -0.037982793592
H -2.199286368442 0.548528512595 -1.241334189306
