15

O -2.161305 -0.204137 -0.770060
C 0.025303 0.505231 -0.021855
C 1.196904 -0.404176 0.432516
C -1.384323 0.016335 0.410425
C 2.585045 0.105653 -0.005899
H 0.170035 1.517502 0.378259
H 0.046435 0.613146 -1.114433
H 1.047459 -1.416277 0.033480
H 1.182544 -0.501935 1.526079
H -1.316530 -0.900295 1.009315
H -1.858989 0.766895 1.055070
H 2.653782 0.177191 -1.096793
H 3.373440 -0.573798 0.334778
H 2.793863 1.095603 0.413628
H -3.048895 -0.505621 -0.499361
