15

O -2.182335579108 0.647903382064 -0.000425026203
C 0.069909767072 -0.031868606406 -0.511448531887
C 1.173126139378 -0.333618973409 0.507822973312
C -1.314124570932 -0.510068788221 -0.067794804833
C 2.549613423533 0.154140471466 0.051739909425
H -0.002395188848 1.046886461101 -0.665706075164
H 0.340842337394 -0.471922123490 -1.475546282064
H 1.213263546940 -1.412536142394 0.693417187534
H 0.911646538550 0.135970404625 1.461289778964
H -1.721260340574 -1.246443507499 -0.769812608429
H -1.248165586651 -0.983819093495 0.919739485372
H 2.840491237883 -0.322317716661 -0.887530500707
H 3.317814914761 -0.070035106467 0.793974050942
H 2.543521125373 1.234177178127 -0.111198411735
H -3.071878957594 0.397118291304 0.282450643517
