15

O -2.237627 0.416319 -0.462212
C 0.043071 -0.326933 -0.598833
C 1.342250 -0.783357 0.119711
C -1.125239 0.028534 0.347249
C 2.307437 0.368674 0.465460
H 0.243919 0.521699 -1.265508
H -0.306241 -1.140322 -1.249343
H 1.877456 -1.483196 -0.536487
H 1.101043 -1.359035 1.022702
H -1.380806 -0.833461 0.976466
H -0.830777 0.842249 1.021726
H 2.627641 0.902282 -0.436005
H 3.205388 -0.014294 0.962013
H 1.835996 1.091648 1.139644
H -2.978437 0.648102 0.128838
