15

O -2.348490 0.165086 -0.622429
C 0.028088 0.137012 -0.255607
C 1.243240 -0.418417 0.530549
C -1.336076 -0.430140 0.195051
C 2.596772 0.160730 0.071230
H -0.007380 1.230096 -0.160045
H 0.149973 -0.076948 -1.325687
H 1.272952 -1.511783 0.433252
H 1.112924 -0.211529 1.601096
H -1.346642 -1.521571 0.087266
H -1.503063 -0.215350 1.258654
H 2.783678 -0.060474 -0.985132
H 3.420021 -0.267966 0.652659
H 2.626285 1.247951 0.201021
H -2.967203 0.652212 -0.046459
