15

O -1.619471290312 -1.017856677524 0.087844431935
C -0.028425913098 0.847764509137 0.015325841194
C 0.971070834660 -0.312006323860 -0.069316784772
C -1.510684264974 0.426144134092 0.104936086960
C 2.414243275942 0.192974796138 -0.151008936371
H 0.228600215743 1.459901841738 0.884939345647
H 0.114791657487 1.489448318409 -0.859112889797
H 0.740094029427 -0.929264359533 -0.938102582496
H 0.849745447209 -0.961167884099 0.798439541514
H -1.954490609297 0.817078634608 1.026965205434
H -2.069521521503 0.846787095237 -0.738119003420
H 2.563217021948 0.821652906742 -1.032779092172
H 3.117914292458 -0.639334937111 -0.211503302814
H 2.674608259973 0.787756878388 0.728427662934
H -2.545208135214 -1.289658347113 0.138132673836
