15

O -2.257701301807 0.444732175160 -0.504453236824
C 0.063128366928 -0.125821251692 -0.500791027581
C 1.271763785836 -0.672059448907 0.291070315751
C -1.201553333426 -0.068726933722 0.337190227392
C 2.430561566321 0.325868187642 0.378473699065
H 0.271348029067 0.882872119568 -0.865850020350
H -0.142169498035 -0.737282342406 -1.381169419491
H 1.627947612388 -1.599464657612 -0.163397690626
H 0.959875116394 -0.939393953077 1.307155600252
H -1.451798238884 -1.072188533854 0.703792352510
H -1.042609581964 0.583244987836 1.205702798144
H 2.791942646975 0.586884838927 -0.618448050003
H 3.269256565904 -0.082132267168 0.946001284087
H 2.109914992381 1.249499999393 0.866325642159
H -3.090272266016 0.508229408622 -0.018252736152
