15

O -2.219579823358 0.457907347570 -0.456133686143
C 0.045797291416 -0.290882058253 -0.586447614441
C 1.312913790753 -0.748046324776 0.157192304876
C -1.093715343030 0.055490577518 0.355832267357
C 2.256078165022 0.406814886771 0.511810713100
H 0.263678918451 0.578174418448 -1.211321036717
H -0.311424442877 -1.078423911535 -1.253685112189
H 1.856407219269 -1.461161317912 -0.467908388440
H 1.034085431847 -1.293802422915 1.064800774777
H -1.349429040802 -0.823454298313 0.960432779684
H -0.796799527339 0.864647467734 1.035016917015
H 2.583532186863 0.923735312476 -0.392553018337
H 3.143046151091 0.049778625720 1.038435090345
H 1.762105598530 1.142256298764 1.151670473682
H -2.976855065540 0.696678235000 0.094477232666
