15

O -2.189388 0.209281 -0.693278
C -0.073270 0.659732 0.350737
C 1.295012 0.161528 0.889843
C -0.991441 -0.430823 -0.248274
C 2.203597 -0.517061 -0.157759
H -0.621292 1.157367 1.161974
H 0.093468 1.428068 -0.415967
H 1.122311 -0.538047 1.718460
H 1.835043 1.010821 1.329127
H -0.493218 -0.937020 -1.083914
H -1.211814 -1.195614 0.507052
H 1.727680 -1.400453 -0.595381
H 3.145707 -0.839010 0.298643
H 2.447517 0.173671 -0.972187
H -2.777909 -0.472554 -1.068252
