15

O -2.236513 0.274610 -0.329647
C -0.042522 -0.677390 -0.563389
C 1.476500 -0.766049 -0.196650
C -0.897187 0.394093 0.156838
C 2.006954 0.227373 0.860453
H -0.140304 -0.509934 -1.644564
H -0.510664 -1.654006 -0.379989
H 2.067588 -0.643257 -1.114234
H 1.698666 -1.786446 0.143465
H -0.865380 0.241549 1.242601
H -0.499966 1.396783 -0.043824
H 1.863463 1.265329 0.542636
H 3.080113 0.079124 1.022711
H 1.508038 0.087441 1.825164
H -2.783706 0.949690 0.113848
