15

O -2.197511 0.240796 -0.571879
C -0.053635 0.677687 0.420070
C 1.332624 0.176815 0.909082
C -0.985366 -0.404318 -0.174234
C 2.212689 -0.476291 -0.177907
H -0.579202 1.157095 1.256895
H 0.087795 1.461059 -0.336424
H 1.189062 -0.539386 1.728884
H 1.881274 1.020518 1.348001
H -0.510229 -0.892437 -1.033750
H -1.181968 -1.184498 0.571932
H 1.727340 -1.352687 -0.618717
H 3.169962 -0.802267 0.242789
H 2.427415 0.231729 -0.985717
H -2.795174 -0.434907 -0.943603
