15

O -1.721540 -0.901563 -0.307987
C -0.032844 0.812938 0.097399
C 1.015104 -0.338262 0.068819
C -1.518085 0.388940 0.276027
C 2.468846 0.146100 -0.105475
H 0.215827 1.534860 0.886405
H 0.034236 1.367379 -0.848537
H 0.775968 -1.034309 -0.746184
H 0.938911 -0.921144 0.996173
H -1.758164 0.357997 1.346583
H -2.182675 1.140958 -0.167595
H 2.592165 0.698593 -1.043155
H 3.158613 -0.704203 -0.126129
H 2.769931 0.799923 0.719911
H -2.658761 -1.145889 -0.190134
