15

O -1.872279 0.483899 0.627545
C 0.013122 -0.111972 -0.755387
C 1.039256 -0.151332 0.411045
C -1.438368 -0.461975 -0.353929
C 2.478082 0.205048 -0.013800
H 0.007984 0.887113 -1.211312
H 0.323497 -0.809744 -1.544563
H 1.036995 -1.150603 0.866038
H 0.720927 0.541684 1.201420
H -2.086445 -0.433224 -1.238859
H -1.484473 -1.486178 0.037351
H 2.849731 -0.488606 -0.775384
H 3.157535 0.154617 0.843544
H 2.530416 1.220454 -0.421069
H -2.786204 0.258843 0.884624
