15

O -2.165197522545 -0.990398953531 0.443755319620
C -0.135485760730 0.152956007954 -0.252759756710
C 1.360732105870 0.379759048288 -0.010192950721
C -0.757811023403 -0.819850255474 0.740593834978
C 1.979307340917 1.362363067337 -1.010322611337
H -0.671669897369 1.106553878610 -0.185026548339
H -0.298431202037 -0.230313527516 -1.265558155063
H 1.888363733906 -0.580195341924 -0.069989688289
H 1.513108978817 0.754101365040 1.009964445146
H -0.275858587803 -1.799529133802 0.661298681556
H -0.612293688612 -0.454187555965 1.765313848473
H 1.870918035523 0.996672823252 -2.035195633121
H 3.045110090133 1.509002437293 -0.817876161998
H 1.489921783735 2.339152281273 -0.951293708904
H -2.718859036488 -0.725461140831 1.188191143434
