15

O -1.973010 -0.690502 1.225222
C -0.190030 0.221046 -0.115857
C 1.300869 0.185401 -0.539625
C -0.578117 -0.837714 0.941240
C 1.673258 1.250331 -1.591307
H -0.437747 1.211455 0.288102
H -0.827852 0.076735 -0.997731
H 1.545183 -0.808259 -0.938029
H 1.936154 0.322911 0.345501
H -0.351175 -1.847711 0.576727
H 0.015517 -0.690920 1.851849
H 1.087744 1.123983 -2.508429
H 2.732806 1.177325 -1.858826
H 1.495024 2.261610 -1.209999
H -2.478260 -1.256377 0.611390
