15

O -2.416403 0.232252 -0.395569
C 0.028046 0.236111 -0.207663
C 1.292660 -0.384799 0.440655
C -1.305962 -0.399511 0.267131
C 2.613620 0.254938 -0.033858
H -0.006266 1.311588 0.011559
H 0.088674 0.133330 -1.299308
H 1.321923 -1.461657 0.226785
H 1.225869 -0.294055 1.533106
H -1.301678 -1.476539 0.058566
H -1.402865 -0.296037 1.354975
H 2.739266 0.149558 -1.116887
H 3.471592 -0.225370 0.449016
H 2.648209 1.322015 0.211187
H -2.110125 0.928217 -1.005803
