15

O -2.315736 0.378481 -0.533314
C 0.055660 0.028259 -0.379742
C 1.271565 -0.558780 0.389690
C -1.311998 -0.208822 0.297809
C 2.584836 0.222556 0.178054
H 0.174203 1.114986 -0.484885
H 0.028705 -0.375100 -1.400399
H 1.412172 -1.611091 0.110342
H 1.056096 -0.563043 1.466619
H -1.488756 -1.284314 0.424626
H -1.322100 0.239616 1.299343
H 2.867857 0.238058 -0.879943
H 3.405757 -0.239218 0.736848
H 2.490209 1.258863 0.520108
H -3.183395 0.238459 -0.109735
