15

O -2.374051 0.113287 -0.542089
C 0.032283 0.187303 -0.250936
C 1.280270 -0.286031 0.538575
C -1.307102 -0.387322 0.273500
C 2.608586 0.294751 0.011380
H -0.025859 1.283433 -0.223555
H 0.133007 -0.095797 -1.307046
H 1.336156 -1.382507 0.510314
H 1.168559 -0.014690 1.596756
H -1.284180 -1.483481 0.243882
H -1.455226 -0.104637 1.323429
H 2.779197 0.011783 -1.033028
H 3.454046 -0.078334 0.599398
H 2.616367 1.388141 0.074520
H -2.387831 1.087639 -0.491479
