22

C 0.745104 0.049717 -0.027381
C -0.745126 -0.049974 0.027991
C 1.385706 1.094649 -0.769237
C -1.420309 -0.315567 1.263389
C 1.572748 -0.896612 0.659703
C -1.538253 0.117409 -1.153337
C 2.790609 1.181205 -0.816038
C -2.825120 -0.406925 1.305669
C 2.976257 -0.794992 0.600851
C -2.942010 0.021662 -1.092264
C 3.583673 0.240010 -0.133957
C -3.583837 -0.239297 0.132470
H 0.790718 1.836278 -1.299401
H -0.852674 -0.442815 2.183550
H 1.123241 -1.708268 1.229119
H -1.061350 0.314350 -2.111919
H 3.265545 1.981075 -1.381601
H -3.326895 -0.606703 2.250934
H 3.594571 -1.521656 1.125136
H -3.533566 0.148772 -1.997313
H 4.669089 0.312723 -0.174872
H -4.669321 -0.311595 0.172404
