22

C 0.740825233591 0.049619883413 -0.027524472608
C -0.740832296219 -0.049552113266 0.027465873608
C 1.382825269232 1.283559627005 0.140700668302
C -1.464027635547 0.586877006595 1.044819510709
C 1.527166886042 -1.088703203882 -0.248760789974
C -1.445970102544 -0.781677354882 -0.936816210562
C 2.771063563465 1.376558435509 0.090292545849
C -2.852310080802 0.494918977187 1.095978149274
C 2.915336029135 -0.995852568402 -0.301370999291
C -2.834084292238 -0.875680984156 -0.884848080842
C 3.542184502369 0.237140038456 -0.131473626497
C -3.542178410957 -0.237195517123 0.131527129046
H 0.787585625818 2.174958008472 0.290251189231
H -0.931396129748 1.137499083651 1.809270315712
H 1.046476154526 -2.052126537124 -0.358387759795
H -0.902672410489 -1.260259801621 -1.741212078931
H 3.249466155545 2.338699967675 0.215589210375
H -3.393853060260 0.987229448418 1.892624886975
H 3.506980067809 -1.886367569189 -0.466370230831
H -3.362581062663 -1.439677399182 -1.641738829992
H 4.620479385606 0.309318071172 -0.171481803247
H -4.620468836806 -0.309418850579 0.171577776375
