22

C 0.756387 0.050620 -0.028064
C -0.756381 -0.050674 0.028108
C 1.449441 1.218143 0.448570
C -1.538513 0.832938 0.851576
C 1.561638 -1.016573 -0.560308
C -1.472557 -1.034600 -0.739753
C 2.854614 1.302300 0.391423
C -2.942885 0.730211 0.896792
C 2.965850 -0.912515 -0.607582
C -2.877590 -1.119894 -0.680745
C 3.611186 0.241856 -0.134152
C -3.611198 -0.241749 0.134017
H 0.909028 2.070394 0.852829
H -1.068146 1.593513 1.469688
H 1.111174 -1.935211 -0.927703
H -0.952037 -1.728881 -1.394616
H 3.358333 2.196479 0.754970
H -3.514849 1.407305 1.529138
H 3.555932 -1.733421 -1.011785
H -3.399433 -1.870197 -1.272508
H 4.696585 0.314581 -0.174519
H -4.696607 -0.314378 0.174271
