22

C 0.743075463222 0.049715942642 -0.027561920521
C -0.743070189270 -0.049769212497 0.027613687121
C 1.361851543284 1.221352676468 -0.478014833971
C -1.415044144906 0.002987900161 1.254060593698
C 1.543886003292 -1.026865478631 0.370156018551
C -1.490688302020 -0.197516648026 -1.146166414591
C 2.750709709017 1.314188799139 -0.530828072219
C -2.803851225029 -0.091156203228 1.305977441056
C 2.932816396718 -0.933699175807 0.319819820965
C -2.879680884099 -0.289287647406 -1.095013278279
C 3.539663669587 0.236975623093 -0.131415423335
C -3.539667373402 -0.236934632514 0.131380186502
H 0.748243697674 2.058912653687 -0.783163471419
H -0.842970940167 0.121237362331 2.165041797064
H 1.071479400233 -1.937153734760 0.715619685241
H -0.976746577720 -0.243062701398 -2.097442548246
H 3.215243716972 2.226522225157 -0.880308876640
H -3.309907437825 -0.047862110172 2.261128532485
H 3.539208814572 -1.774323261970 0.629530423390
H -3.444550713088 -0.404252766881 -2.010428749591
H 4.618024290881 0.309186215528 -0.171460778818
H -4.618032186156 -0.309107952895 0.171391054024
