22

C 0.740869126685 0.049551155709 -0.027528428360
C -0.740869194379 -0.049539524422 0.027542216805
C 1.364425736952 1.072750690970 -0.754013826791
C -1.397528710656 -0.309425952737 1.237816369740
C 1.546939398401 -0.877989117947 0.645840946921
C -1.513837643401 0.114677901268 -1.129649937240
C 2.752560339922 1.164979718839 -0.806954590270
C -2.785572067355 -0.403852945127 1.289370537960
C 2.935094248117 -0.784449153617 0.595674432559
C -2.902082287830 0.023312947438 -1.078099763594
C 3.542970506383 0.237043032542 -0.131604030665
C -3.542969715091 -0.237054242668 0.131604114021
H 0.756077084863 1.810999352380 -1.260043529018
H -0.816626377103 -0.415179532748 2.144755018280
H 1.081278220028 -1.688099911426 1.191779820870
H -1.020728829693 0.292276227377 -2.076470016199
H 3.216256527056 1.965593745010 -1.367551485231
H -3.275548280098 -0.598648987773 2.233957047236
H 3.541309643389 -1.513458829579 1.116552380576
H -3.482016452508 0.146487040382 -1.982958944731
H 4.621260141166 0.309188013533 -0.171653516289
H -4.621258554511 -0.309210819911 0.171656548957
