22

C 0.740860586008 0.049585670900 -0.027507008934
C -0.740861637265 -0.049598706066 0.027454280888
C 1.445031358294 0.798706048563 0.924588176495
C -1.526834332493 1.084971932601 0.269368576566
C 1.466330959268 -0.603824162052 -1.032622503458
C -1.384529313058 -1.279859583348 -0.161374768569
C 2.833067490750 0.892980216967 0.872477984556
C -2.914927591048 0.992068869991 0.322384887772
C 2.854592327563 -0.512246253038 -1.083487317311
C -2.772730827989 -1.372797472234 -0.111334693265
C 3.542981181292 0.237173807810 -0.131433721697
C -3.542980470363 -0.237160466053 0.131478450253
H 0.901579279689 1.289892706155 1.721178806770
H -1.046477710830 2.046718325886 0.393716945059
H 0.935837950432 -1.166895427317 -1.789388305286
H -0.790940698254 -2.169725166675 -0.325564980462
H 3.360206677194 1.470546424579 1.620013995131
H -3.505707434636 1.879961414369 0.503753784842
H 3.397344753233 -1.018196916156 -1.870697005272
H -3.251841954299 -2.332303404852 -0.252990343769
H 4.621269401902 0.309348475318 -0.171430491710
H -4.621267060995 -0.309345288732 0.171498761763
