22

C 0.739740 0.049422 -0.027520
C -0.739738 -0.049451 0.027525
C 1.452807 -0.336879 -1.204496
C -1.381061 -1.320569 0.154009
C 1.480158 0.532952 1.095435
C -1.551902 1.124479 -0.044974
C 2.857119 -0.239890 -1.248133
C -2.785908 -1.405357 0.205387
C 2.884257 0.623716 1.034631
C -2.955471 1.021555 0.008131
C 3.570931 0.238741 -0.132770
C -3.570930 -0.238713 0.132808
H 0.911742 -0.707817 -2.073438
H -0.784601 -2.229568 0.211742
H 0.960324 0.832933 2.003814
H -1.087463 2.104399 -0.142152
H 3.392943 -0.536124 -2.148291
H -3.266840 -2.377249 0.301826
H 3.441006 0.993012 1.894186
H -3.567109 1.920410 -0.047668
H 4.656451 0.311323 -0.173142
H -4.656453 -0.311269 0.173193
