22

C 0.745510493104 0.049899475547 -0.027717362897
C -0.745515833365 -0.049820466969 0.027701307828
C 1.400415209400 0.587763884430 -1.146708849858
C -1.388051634571 -0.872250044694 0.966370123324
C 1.546978424182 -0.390668594737 1.037130989501
C -1.559346921977 0.675218462711 -0.856803652220
C 2.787537763900 0.681292222486 -1.199383342844
C -2.775176607959 -0.965721689421 1.019132802072
C 2.934289825047 -0.298723710045 0.986699005058
C -2.946646478387 0.583088367613 -0.806438298464
C 3.564102352656 0.238298447835 -0.132469154741
C -3.564097535489 -0.238363660404 0.132484240965
H 0.831411540536 0.909589299596 -2.006523678866
H -0.806754814762 -1.476853160487 1.646931987504
H 1.090888512665 -0.781057368594 1.935013437163
H -1.115553663886 1.348422598408 -1.575455947427
H 3.260901926222 1.093407956548 -2.080379128670
H -3.238201349537 -1.615469948152 1.749546017066
H 3.522015742027 -0.639928530672 1.828261026366
H -3.544705536205 1.161856042637 -1.497394152571
H 4.642225352046 0.310361076860 -0.172539623043
H -4.642216475494 -0.310479115630 0.172566165535
