22

C 0.745072 0.049871 -0.027651
C -0.745071 -0.049872 0.027637
C 1.468410 0.814899 0.944143
C -1.551919 1.108051 0.274718
C 1.490134 -0.616845 -1.053907
C -1.406630 -1.306102 -0.164965
C 2.872746 0.903159 0.884126
C -2.955578 1.004471 0.325038
C 2.894281 -0.517124 -1.098102
C -2.811443 -1.390513 -0.111051
C 3.583839 0.239911 -0.132947
C -3.583841 -0.239906 0.132989
H 0.938516 1.330792 1.743045
H -1.086695 2.081555 0.419856
H 0.976144 -1.202622 -1.814100
H -0.827967 -2.209720 -0.348847
H 3.411094 1.486280 1.629337
H -3.557789 1.891918 0.511968
H 3.449010 -1.027061 -1.883837
H -3.302314 -2.351136 -0.257418
H 4.669271 0.312557 -0.173219
H -4.669268 -0.312562 0.173273
