7843
     RDKit          3D

 14 13  0  0  0  0  0  0  0  0999 V2000
   -0.4059   -0.6312    0.3311 C   0  0  0  0  0  0  0  0  0  0  0  0
    0.3927    0.5163   -0.2951 C   0  0  0  0  0  0  0  0  0  0  0  0
   -1.8703   -0.3364   -0.0258 C   0  0  0  0  0  0  0  0  0  0  0  0
    1.8742    0.3316   -0.0052 C   0  0  0  0  0  0  0  0  0  0  0  0
   -0.3544   -0.6254    1.4207 H   0  0  0  0  0  0  0  0  0  0  0  0
   -0.1604   -1.5897   -0.1225 H   0  0  0  0  0  0  0  0  0  0  0  0
    0.1021    1.4872    0.1451 H   0  0  0  0  0  0  0  0  0  0  0  0
    0.1844    0.5628   -1.3641 H   0  0  0  0  0  0  0  0  0  0  0  0
   -1.8727   -0.2190   -1.1364 H   0  0  0  0  0  0  0  0  0  0  0  0
   -2.0879    0.6463    0.4697 H   0  0  0  0  0  0  0  0  0  0  0  0
   -2.5408   -1.1382    0.3032 H   0  0  0  0  0  0  0  0  0  0  0  0
    2.3678   -0.3519   -0.6978 H   0  0  0  0  0  0  0  0  0  0  0  0
    1.9807    0.0216    1.0652 H   0  0  0  0  0  0  0  0  0  0  0  0
    2.3905    1.3258   -0.0880 H   0  0  0  0  0  0  0  0  0  0  0  0
  1  2  1  0
  1  3  1  0
  1  5  1  0
  1  6  1  0
  2  4  1  0
  2  7  1  0
  2  8  1  0
  3  9  1  0
  3 10  1  0
  3 11  1  0
  4 12  1  0
  4 13  1  0
  4 14  1  0
M  END
