15
0 1 C4H10O
O                    -2.282125446741     0.357665621530    -0.550406921071
C                     0.063965793203     0.214157106825    -0.228796254732
C                     1.226946805740    -0.413008529894     0.532553772829
C                    -1.284460544526    -0.291045427193     0.239116065563
C                     2.580164876062     0.105031870455     0.057624561227
H                     0.082904250920     1.303819029745    -0.115790185182
H                     0.157664451981     0.004349409022    -1.300110437657
H                     1.191603286350    -1.503378242821     0.418557651617
H                     1.113116219025    -0.210495150884     1.604504245846
H                    -1.336458074411    -1.383637613184     0.121034480265
H                    -1.418759916238    -0.066360861645     1.307673160036
H                     2.728926577385    -0.113539209583    -1.003599196816
H                     3.401821839251    -0.353803300885     0.614304221202
H                     2.649066087464     1.188767927961     0.187863655559
H                    -3.149302446710     0.040386428123    -0.249108873316
