propbenzene-opt_1.xyz
 OpenBabel06012123513D

 21 21  0  0  0  0  0  0  0  0999 V2000
   -1.3021   -0.6733    0.6368 C   0  0  0  0  0  0  0  0  0  0  0  0
   -2.3435   -0.0495   -0.2963 C   0  0  0  0  0  0  0  0  0  0  0  0
    0.0953   -0.2297    0.2996 C   0  0  0  0  0  0  0  0  0  0  0  0
   -3.7649   -0.4914    0.0348 C   0  0  0  0  0  0  0  0  0  0  0  0
    0.6140    0.9575    0.8289 C   0  0  0  0  0  0  0  0  0  0  0  0
    0.8804   -0.9559   -0.6028 C   0  0  0  0  0  0  0  0  0  0  0  0
    1.8864    1.4038    0.4747 C   0  0  0  0  0  0  0  0  0  0  0  0
    2.1537   -0.5148   -0.9610 C   0  0  0  0  0  0  0  0  0  0  0  0
    2.6597    0.6688   -0.4240 C   0  0  0  0  0  0  0  0  0  0  0  0
   -1.3688   -1.7666    0.5734 H   0  0  0  0  0  0  0  0  0  0  0  0
   -1.5378   -0.4033    1.6742 H   0  0  0  0  0  0  0  0  0  0  0  0
   -2.2632    1.0424   -0.2352 H   0  0  0  0  0  0  0  0  0  0  0  0
   -2.0967   -0.3205   -1.3303 H   0  0  0  0  0  0  0  0  0  0  0  0
   -4.0342   -0.2013    1.0558 H   0  0  0  0  0  0  0  0  0  0  0  0
   -4.4920   -0.0381   -0.6464 H   0  0  0  0  0  0  0  0  0  0  0  0
   -3.8637   -1.5787   -0.0428 H   0  0  0  0  0  0  0  0  0  0  0  0
    0.0166    1.5322    1.5354 H   0  0  0  0  0  0  0  0  0  0  0  0
    0.4916   -1.8831   -1.0210 H   0  0  0  0  0  0  0  0  0  0  0  0
    2.2758    2.3247    0.9019 H   0  0  0  0  0  0  0  0  0  0  0  0
    2.7522   -1.0959   -1.6583 H   0  0  0  0  0  0  0  0  0  0  0  0
    3.6532    1.0134   -0.6994 H   0  0  0  0  0  0  0  0  0  0  0  0
  1 11  1  0  0  0  0
  2 12  1  0  0  0  0
  2  4  1  0  0  0  0
  2  1  1  0  0  0  0
  3  1  1  0  0  0  0
  3  5  2  0  0  0  0
  4 14  1  0  0  0  0
  5 17  1  0  0  0  0
  6  3  1  0  0  0  0
  7  5  1  0  0  0  0
  7 19  1  0  0  0  0
  8  6  2  0  0  0  0
  8  9  1  0  0  0  0
  9  7  2  0  0  0  0
 10  1  1  0  0  0  0
 13  2  1  0  0  0  0
 15  4  1  0  0  0  0
 16  4  1  0  0  0  0
 18  6  1  0  0  0  0
 20  8  1  0  0  0  0
 21  9  1  0  0  0  0
M  END
