7668
     RDKit          3D

 21 21  0  0  0  0  0  0  0  0999 V2000
   -0.8869   -0.5127    0.5833 C   0  0  0  0  0  0  0  0  0  0  0  0
   -1.8945    0.0744   -0.3729 C   0  0  0  0  0  0  0  0  0  0  0  0
    0.4971   -0.0838    0.2826 C   0  0  0  0  0  0  0  0  0  0  0  0
   -3.2614   -0.4387    0.0413 C   0  0  0  0  0  0  0  0  0  0  0  0
    1.0803    1.0451    0.8222 C   0  0  0  0  0  0  0  0  0  0  0  0
    1.2669   -0.8368   -0.5814 C   0  0  0  0  0  0  0  0  0  0  0  0
    2.3836    1.4058    0.5087 C   0  0  0  0  0  0  0  0  0  0  0  0
    2.5750   -0.4746   -0.8959 C   0  0  0  0  0  0  0  0  0  0  0  0
    3.1521    0.6538   -0.3540 C   0  0  0  0  0  0  0  0  0  0  0  0
   -0.9254   -1.6244    0.4565 H   0  0  0  0  0  0  0  0  0  0  0  0
   -1.1460   -0.3169    1.6323 H   0  0  0  0  0  0  0  0  0  0  0  0
   -1.8567    1.1674   -0.4347 H   0  0  0  0  0  0  0  0  0  0  0  0
   -1.7119   -0.3208   -1.3935 H   0  0  0  0  0  0  0  0  0  0  0  0
   -3.4442   -0.2588    1.1199 H   0  0  0  0  0  0  0  0  0  0  0  0
   -4.0665    0.0158   -0.5730 H   0  0  0  0  0  0  0  0  0  0  0  0
   -3.2181   -1.5541   -0.0939 H   0  0  0  0  0  0  0  0  0  0  0  0
    0.4742    1.6304    1.4971 H   0  0  0  0  0  0  0  0  0  0  0  0
    0.8161   -1.7256   -1.0098 H   0  0  0  0  0  0  0  0  0  0  0  0
    2.8271    2.2979    0.9427 H   0  0  0  0  0  0  0  0  0  0  0  0
    3.1670   -1.0815   -1.5799 H   0  0  0  0  0  0  0  0  0  0  0  0
    4.1721    0.9384   -0.5977 H   0  0  0  0  0  0  0  0  0  0  0  0
  1  2  1  0
  1  3  1  0
  1 10  1  0
  1 11  1  0
  2  4  1  0
  2 12  1  0
  2 13  1  0
  3  5  2  0
  3  6  1  0
  4 14  1  0
  4 15  1  0
  4 16  1  0
  5  7  1  0
  5 17  1  0
  6  8  2  0
  6 18  1  0
  7  9  2  0
  7 19  1  0
  8  9  1  0
  8 20  1  0
  9 21  1  0
M  END
