14

N 2.312221 0.303600 0.304242
C 0.927134 0.085838 0.151400
C 0.440203 -1.164240 -0.301254
C 0.002085 1.124171 0.417358
C -0.943236 -1.373300 -0.471711
C -1.380487 0.911421 0.245108
C -1.855531 -0.336964 -0.198454
H 1.125741 -1.971685 -0.519857
H 0.347882 2.091371 0.755854
H -1.308007 -2.353213 -0.821569
H -2.088811 1.729018 0.458564
H -2.937375 -0.501958 -0.333924
H 3.012025 -0.393247 0.027373
H 2.699740 1.218160 0.559898
