14

N 2.290795381072 0.442906481350 0.284247694343
C 0.915264170361 0.161912492995 0.130737293710
C 0.425518222867 -1.146833995958 0.065883106961
C 0.016610607116 1.224344576287 -0.005160297893
C -0.937224212685 -1.385578758478 -0.083169073487
C -1.340093910521 0.981622441610 -0.188675254624
C -1.826315914748 -0.323349354791 -0.219350875878
H 1.120039360594 -1.980274158862 0.141835383171
H 0.396654862193 2.240302009910 0.049355792095
H -1.301838276727 -2.408476822499 -0.115129381061
H -2.024449139538 1.818950852432 -0.292359577705
H -2.887947605296 -0.510177199859 -0.348681471613
H 2.816248534527 -0.296790064388 0.729070887120
H 2.751200406166 0.791702111618 -0.544634159411
