14

N 2.289171 0.478942 0.268159
C 0.925942 0.199839 0.050159
C 0.489188 -1.121717 -0.210559
C -0.040028 1.219611 0.210717
C -0.883483 -1.402873 -0.362394
C -1.411749 0.935850 0.057921
C -1.835846 -0.374320 -0.233594
H 1.206477 -1.926055 -0.300616
H 0.270467 2.227220 0.449228
H -1.208396 -2.433733 -0.580193
H -2.151394 1.745417 0.171727
H -2.909795 -0.595608 -0.350945
H 2.819383 0.789324 -0.556051
H 2.823496 -0.214312 0.807155
