14

N 1.996222 0.705298 1.016087
C 0.774506 0.285226 0.457043
C 0.630857 -1.036252 -0.024889
C -0.273028 1.211238 0.237324
C -0.563978 -1.442552 -0.651946
C -1.466413 0.803020 -0.391708
C -1.617027 -0.525801 -0.830862
H 1.437937 -1.746229 0.090208
H -0.167644 2.238991 0.556425
H -0.668601 -2.481909 -1.004357
H -2.281517 1.530490 -0.540073
H -2.551818 -0.844786 -1.321353
H 2.469654 1.538701 0.649398
H 2.182970 0.526445 2.009154
