14

N 2.319096 0.310766 0.174248
C 0.930137 0.130247 0.041725
C 0.400230 -1.142507 -0.270493
C 0.046324 1.218515 0.222426
C -0.991697 -1.323270 -0.397606
C -1.344922 1.035485 0.093222
C -1.866646 -0.235152 -0.216047
H 1.061219 -1.986048 -0.412458
H 0.433601 2.198963 0.461870
H -1.392294 -2.321575 -0.639426
H -2.022580 1.893240 0.236552
H -2.955719 -0.377568 -0.315166
H 2.905364 0.636968 -0.600983
H 2.820018 0.072860 1.036517
