14

N 2.317529 0.356135 0.220749
C 0.932909 0.134884 0.099294
C 0.432739 -1.146537 -0.231884
C 0.023716 1.201124 0.282509
C -0.954245 -1.356761 -0.366822
C -1.362457 0.988218 0.145690
C -1.854217 -0.290739 -0.177622
H 1.111805 -1.974249 -0.383336
H 0.388315 2.188505 0.528727
H -1.331363 -2.360808 -0.622189
H -2.059518 1.829668 0.292205
H -2.939422 -0.456222 -0.283630
H 2.894289 0.252867 -0.622708
H 2.786008 0.001149 1.062863
