14

N 2.335907727261 0.239211251631 0.108051397363
C 0.929384584572 0.101999007535 0.082506556160
C 0.371286547457 -1.153544635507 -0.180857826509
C 0.077265619230 1.202988228099 0.211238549069
C -1.007519241080 -1.310442712908 -0.256979191294
C -1.301604840288 1.047854241513 0.101023153360
C -1.852144021867 -0.210487314961 -0.120976800271
H 1.036085209067 -1.999152613943 -0.330842645835
H 0.501688116105 2.186190770084 0.401326503404
H -1.424810606240 -2.294606979368 -0.450627278970
H -1.948030755456 1.915254748863 0.200820199157
H -2.928188224465 -0.332462562670 -0.197541256627
H 2.656992149406 1.175586142926 -0.096222601248
H 2.790993533145 -0.144863176757 0.925045491253
