14

N 2.319751874892 0.219206229506 0.381458864377
C 0.921803850033 0.106025751807 0.126186367624
C 0.365353996905 -1.168343896019 -0.014552860516
C 0.075858813748 1.217824320536 0.081951942649
C -0.998333734299 -1.324127917731 -0.233729560431
C -1.293369735206 1.060286086795 -0.113106625989
C -1.835001301572 -0.210586083539 -0.279952930126
H 1.023878343657 -2.028601731659 0.057602045327
H 0.499193593466 2.213095840019 0.198489627230
H -1.414980761306 -2.320751368409 -0.348543905394
H -1.937200796642 1.934878465339 -0.140478975736
H -2.902016382587 -0.334394189134 -0.437481279705
H 2.532135131568 0.998323591332 0.993307953809
H 2.874306652758 0.289067758369 -0.464936694391
