14

N 2.340010 0.303324 0.069120
C 0.943482 0.125349 -0.020995
C 0.395307 -1.165355 -0.215190
C 0.066181 1.232288 0.083289
C -1.000207 -1.344239 -0.299150
C -1.328727 1.049026 -0.002268
C -1.864223 -0.238441 -0.193126
H 1.043453 -2.026959 -0.300736
H 0.457429 2.229914 0.230056
H -1.412263 -2.355858 -0.449011
H -1.999152 1.920337 0.080913
H -2.955826 -0.380217 -0.260324
H 2.727654 1.228867 0.285775
H 2.929011 -0.467114 0.406031
